%NProcShared=4
%Mem=10GB
%Chk=nBA_42_opt.chk
#P wB97XD/LANL2DZ opt freq=noraman

previous condition without solvent

0 1
C -10.344398 1.085187 -1.880662
C -9.218776 0.015417 -1.547371
C -8.910274 -0.864021 -2.788600
O -9.374351 -0.763677 -3.897022
O -8.018588 -1.828605 -2.428808
C -7.561793 -2.767675 -3.425290
C -6.539836 -3.732457 -2.740986
O -7.962009 0.580288 -1.141582
N -7.941117 1.163154 0.145724
C -7.979947 2.620268 -0.049263
C -8.363769 3.386634 1.222990
C -6.720369 3.235553 -0.674594
C -6.800473 0.637975 0.965817
C -7.226066 -0.666444 1.730495
C -7.358812 -1.941395 0.877955
C -6.197754 -0.982473 2.836110
C -8.575358 -0.438115 2.441681
C -5.415204 0.469332 0.333278
C -4.299970 1.028518 0.966050
C -3.016865 0.902172 0.441354
C -2.817036 0.198287 -0.747168
C -3.915793 -0.373318 -1.390808
C -5.190758 -0.236373 -0.848668
H -10.621122 1.631586 -0.965948
H -11.247520 0.587788 -2.266319
H -9.985094 1.806750 -2.628898
H -9.586257 -0.661754 -0.758177
H -7.092360 -2.228661 -4.263450
H -8.416354 -3.327063 -3.837768
H -5.693654 -3.153920 -2.338340
H -6.143897 -4.489663 -3.434066
H -7.025248 -4.251200 -1.899223
H -8.796074 2.809276 -0.767215
H -7.591113 3.302094 2.002222
H -9.309097 3.006812 1.641453
H -8.495378 4.454083 0.988778
H -6.451605 2.735261 -1.618593
H -5.855105 3.171106 0.002097
H -6.902936 4.299468 -0.890259
H -6.658153 1.367825 1.782908
H -7.680703 -2.779790 1.519412
H -6.403509 -2.238578 0.416911
H -8.100137 -1.847384 0.075204
H -6.531062 -1.841165 3.443243
H -6.058519 -0.129861 3.520749
H -5.210567 -1.244209 2.421366
H -8.534553 0.437792 3.109955
H -8.849906 -1.312627 3.054910
H -9.396003 -0.270172 1.725196
H -4.437886 1.588944 1.902046
H -2.162026 1.357578 0.961821
H -1.808332 0.094128 -1.170762
H -3.777343 -0.932187 -2.327736
H -6.039616 -0.699231 -1.368071

