%NProcShared=4
%Mem=10GB
%Chk=nBA_25_opt.chk
#P wB97XD/LANL2DZ opt freq=noraman

previous condition without solvent

0 1
C -2.165382 0.986163 -3.269069
C -2.251041 1.209576 -1.704962
C -3.443742 0.402026 -1.081226
O -4.120135 -0.429994 -1.632384
O -3.668627 0.837486 0.188859
C -4.719228 0.218768 0.961329
C -4.695173 0.847557 2.391737
O -0.993591 0.843039 -1.099384
N -0.966104 0.657442 0.311991
C -0.309954 1.849164 0.917053
C -1.323881 3.011095 0.889576
C 0.947215 2.333329 0.167296
C 0.068565 1.710887 2.402541
C -0.481104 -0.723829 0.559651
C -1.212203 -1.714503 -0.378213
C -0.833670 -1.243671 1.966900
C 1.020079 -0.940440 0.308399
H -3.084737 1.303927 -3.782467
H -1.974260 -0.074613 -3.492356
H -1.320090 1.575731 -3.657154
H -2.464183 2.269175 -1.500237
H -4.557885 -0.869706 1.010278
H -5.693427 0.380763 0.473539
H -3.703033 0.691702 2.844019
H -5.453363 0.410987 3.058934
H -4.870541 1.932722 2.325633
H -2.281839 2.713886 1.344249
H -1.523583 3.376934 -0.127071
H -0.930179 3.869407 1.457360
H 0.730600 2.568957 -0.887023
H 1.764390 1.598321 0.179387
H 1.319132 3.252876 0.646702
H 0.868582 0.976771 2.578931
H -0.801555 1.431255 3.017691
H 0.441757 2.681823 2.767486
H -0.836834 -2.734902 -0.197551
H -1.052619 -1.495807 -1.445733
H -2.295873 -1.730759 -0.187217
H -0.591773 -2.317401 2.026548
H -1.911026 -1.124953 2.166536
H -0.288157 -0.754674 2.784707
H 1.300647 -0.641121 -0.714099
H 1.255199 -2.009885 0.429059
H 1.658057 -0.385539 1.011734

