%NProcShared=4
%Mem=10GB
%Chk=nBA_37_opt.chk
#P wB97XD/LANL2DZ opt freq=noraman

previous condition without solvent

0 1
C -9.717603 -1.718543 -2.088519
C -9.434805 -0.370003 -1.302145
C -10.755798 0.149708 -0.664496
O -11.872482 -0.300778 -0.786801
O -10.479647 1.263072 0.066243
C -11.547691 1.970126 0.734645
C -10.879228 2.942313 1.759397
O -8.445855 -0.488722 -0.252757
N -7.062327 -0.289574 -0.609091
C -6.719015 1.094362 -0.190779
C -7.449279 2.106662 -1.097531
C -5.234892 1.478891 -0.358220
C -7.089312 1.407891 1.270830
C -6.326438 -1.391018 0.083513
C -6.835325 -2.778126 -0.432363
C -6.497672 -3.101083 -1.898952
C -6.392088 -3.957487 0.449523
C -4.791794 -1.452655 0.058661
C -4.078765 -1.733519 1.226048
C -2.694702 -1.839823 1.236131
C -1.926410 -1.629709 0.086065
C -2.648118 -1.416805 -1.094298
C -4.033691 -1.309640 -1.102620
C -0.413457 -1.885068 0.080576
F 0.168513 -1.551464 1.248841
F 0.234173 -1.193940 -0.877297
F -0.137495 -3.184386 -0.127495
H -10.522165 -1.571630 -2.825682
H -10.010722 -2.519650 -1.394606
H -8.817931 -2.034322 -2.632232
H -9.114222 0.397676 -2.025008
H -12.225681 1.264950 1.242397
H -12.151456 2.521817 -0.004383
H -10.294272 2.361149 2.490724
H -11.606786 3.560715 2.305135
H -10.178434 3.606677 1.228420
H -8.537128 2.117449 -0.949921
H -7.247063 1.899998 -2.160788
H -7.099493 3.127939 -0.875874
H -4.562585 0.971841 0.348620
H -5.124257 2.558159 -0.160187
H -4.876340 1.287503 -1.381432
H -6.527876 0.779240 1.979875
H -8.161910 1.256878 1.469430
H -6.850927 2.460812 1.489453
H -6.620978 -1.344745 1.148588
H -7.936713 -2.754981 -0.353742
H -7.101210 -3.954836 -2.248209
H -5.438561 -3.382295 -2.012357
H -6.689986 -2.252995 -2.574262
H -5.305789 -4.128689 0.384551
H -6.892335 -4.885010 0.125202
H -6.648495 -3.797049 1.508997
H -4.632277 -1.884562 2.165452
H -2.186809 -2.067835 2.186813
H -2.101500 -1.297510 -2.043179
H -4.556067 -1.102990 -2.049078

