%NProcShared=4
%Mem=10GB
%Chk=nBA_24_opt.chk
#P wB97XD/LANL2DZ opt freq=noraman

previous condition without solvent

0 1
C -5.247250 4.726357 -1.169453
C -4.661174 3.774090 -0.052205
C -5.806532 3.028279 0.725061
O -3.762735 2.826394 -0.654586
N -3.337550 1.745068 0.157762
C -3.648456 0.452902 -0.536360
C -2.390153 -0.119555 -1.220707
C -1.183132 -0.326418 -0.278075
C -1.209174 0.664834 0.907916
C -1.936291 1.995696 0.619408
C -2.001721 2.774949 1.944444
C -1.091733 2.821042 -0.372128
C -4.736248 0.625515 -1.618960
C -4.222676 -0.562516 0.466394
O -6.969923 2.967752 0.416899
O -5.304424 2.514354 1.881816
C -6.196956 1.818345 2.778176
C -5.340200 1.224510 3.942832
H -5.911733 5.496626 -0.751948
H -5.800925 4.136873 -1.916525
H -4.406384 5.222197 -1.679399
H -4.113331 4.367463 0.696633
H -2.095582 0.578252 -2.024238
H -2.654549 -1.064778 -1.723717
H -0.250231 -0.212855 -0.855384
H -1.177273 -1.356838 0.115355
H -0.184371 0.885550 1.251548
H -1.709825 0.176915 1.762412
H -2.622154 2.243015 2.683507
H -2.426130 3.780950 1.812899
H -0.991602 2.893991 2.366061
H -1.520444 3.823193 -0.534675
H -1.003784 2.336987 -1.356046
H -0.077086 2.952048 0.035419
H -4.945774 -0.349936 -2.085880
H -4.424447 1.317301 -2.417982
H -5.677963 1.005283 -1.192734
H -3.542524 -0.774033 1.303376
H -4.436543 -1.514392 -0.044248
H -5.165410 -0.187381 0.895851
H -6.727929 1.019602 2.236957
H -6.962135 2.511768 3.162198
H -4.567477 0.559759 3.526349
H -5.942702 0.650746 4.662375
H -4.830834 2.037453 4.483542

