%NProcShared=4
%Mem=10GB
%Chk=nBA_30a_opt.chk
#P wB97XD/LANL2DZ opt freq=noraman

previous condition without solvent

0 1
C -7.089555 -3.041116 -0.668104
C -7.566649 -1.602312 -0.204026
C -7.872782 -1.558611 1.318388
O -7.742878 -2.452079 2.118953
O -8.388712 -0.335314 1.627710
C -8.763645 -0.075064 2.997947
C -9.186665 1.425241 3.115093
O -6.630325 -0.559300 -0.519209
N -5.366164 -0.662289 0.113102
C -4.280185 -0.870474 -0.860404
C -3.177451 0.092103 -0.472865
C -3.620686 0.909337 0.562584
C -5.048616 0.540413 0.909221
C -2.788172 1.882578 1.087729
C -1.499172 2.032359 0.579043
C -1.054935 1.208600 -0.461728
C -1.902325 0.237172 -0.990397
C -5.904852 1.754965 0.463428
C -5.151248 0.360294 2.428533
C -4.671865 -0.425172 -2.293356
C -3.687636 -2.284446 -0.877960
C -2.990147 -2.748942 0.243338
C -2.445105 -4.027519 0.298827
C -2.597731 -4.895616 -0.782458
C -3.305848 -4.463147 -1.904347
C -3.844296 -3.179512 -1.941623
H -6.180094 -3.348348 -0.130224
H -6.865333 -3.009603 -1.744938
H -7.874614 -3.791690 -0.492165
H -8.517568 -1.357204 -0.708796
H -7.918970 -0.294075 3.669479
H -9.590559 -0.739862 3.294188
H -9.500653 1.693433 4.135191
H -10.022001 1.631174 2.428058
H -8.343634 2.073721 2.829645
H -3.143430 2.522814 1.905830
H -0.828730 2.798251 0.995762
H -0.037283 1.328120 -0.860799
H -1.569477 -0.423428 -1.803035
H -3.829138 -0.544586 -2.990804
H -4.976953 0.633277 -2.313456
H -5.523216 -1.006688 -2.680179
H -2.860653 -2.079715 1.107140
H -1.898538 -4.352112 1.196027
H -2.172161 -5.908269 -0.748055
H -3.443777 -5.140059 -2.760116
H -4.404954 -2.878287 -2.836695
C -5.015004 -0.917579 2.981584
C -5.058081 -1.139997 4.354108
C -5.219611 -0.065446 5.228500
C -5.335577 1.222332 4.703936
C -5.292037 1.424406 3.326797
H -6.964016 1.622680 0.735338
H -5.866523 1.878701 -0.630442
H -5.555477 2.698356 0.905547
H -4.905204 -1.783794 2.312328
H -4.970482 -2.164689 4.743769
H -5.255474 -0.232168 6.314051
H -5.459774 2.080428 5.380471
H -5.387702 2.452337 2.953296

