%NProcShared=4
%Mem=10GB
%Chk=nBA_27_opt.chk
#P wB97XD/LANL2DZ opt freq=noraman

previous condition without solvent

0 1
C -3.539380 1.755351 4.291169
C -2.381914 1.859635 3.204232
C -1.274511 2.837270 3.683307
O -1.212482 3.409375 4.743382
O -0.351495 2.992403 2.690790
C 0.776067 3.858456 2.947222
C 1.651473 3.945460 1.654869
O -1.716760 0.622428 2.909088
N -2.540931 -0.482214 2.575016
C -2.082599 -1.598284 3.428918
C -0.604264 -1.971555 3.220044
C -2.908545 -2.884761 3.252429
C -2.250090 -1.205282 4.909317
C -2.500682 -0.678395 1.068967
C -3.931872 -0.450534 0.468562
C -4.522102 0.952753 0.682114
C -4.936146 -1.433683 1.099277
C -3.942493 -0.732806 -1.044455
P -1.148886 0.207522 0.165135
O -0.883987 -0.236917 -1.199599
O -1.521460 1.767918 0.214748
O 0.166357 0.068645 1.075197
C -1.102748 2.691085 -0.786203
C -1.691393 4.115707 -0.502224
C 1.481379 0.028446 0.528699
C 2.548819 -0.095980 1.669390
H -4.040571 2.727305 4.412808
H -3.138445 1.439997 5.265656
H -4.286496 1.014599 3.968278
H -2.784549 2.282083 2.269981
H 1.366234 3.462006 3.788985
H 0.423135 4.859192 3.243367
H 1.976204 2.937525 1.356736
H 2.546395 4.568904 1.801077
H 1.064330 4.372771 0.827889
H 0.062973 -1.118206 3.422152
H -0.402669 -2.318925 2.194865
H -0.330915 -2.783613 3.912055
H -2.837646 -3.303364 2.237054
H -3.973413 -2.715481 3.476356
H -2.537448 -3.651191 3.951891
H -3.299027 -0.959928 5.139165
H -1.628130 -0.337565 5.181517
H -1.947900 -2.043389 5.557002
H -2.261461 -1.735021 0.849418
H -5.518750 1.008434 0.210890
H -3.912586 1.752165 0.235933
H -4.660452 1.183754 1.748438
H -4.630173 -2.482545 0.958165
H -5.932981 -1.319152 0.640177
H -5.057417 -1.255257 2.179939
H -3.387871 0.026592 -1.618181
H -4.975629 -0.727571 -1.431948
H -3.507701 -1.717655 -1.281068
H -1.440712 2.333474 -1.773744
H -0.000992 2.725286 -0.805434
H -2.791793 4.075852 -0.505680
H -1.367402 4.849156 -1.255673
H -1.369102 4.468331 0.489363
H 1.654412 0.944772 -0.059469
H 1.560092 -0.827059 -0.163555
H 2.397896 -1.031622 2.230067
H 2.441883 0.742486 2.374779
H 3.574840 -0.089790 1.271950

