%NProcShared=4
%Mem=10GB
%Chk=nBA_41_opt.chk
#P wB97XD/LANL2DZ opt freq=noraman

previous condition without solvent

0 1
C -9.738742 -0.231906 -0.250797
C -8.402364 -1.082819 -0.210882
C -8.358527 -2.133966 -1.350450
O -9.165840 -2.308554 -2.228614
O -7.238551 -2.893544 -1.191588
C -6.971440 -3.950086 -2.138756
C -5.620924 -4.627463 -1.737087
O -7.220517 -0.284485 -0.359417
N -6.882639 0.503551 0.763513
C -7.071612 1.907520 0.378288
C -6.988724 2.875604 1.564952
C -6.181389 2.412980 -0.765690
C -5.555691 0.085828 1.287797
C -5.734980 -1.284303 1.998793
C -4.440590 -1.847100 2.608259
C -6.777369 -1.202338 3.129220
C -4.362145 0.010567 0.338797
C -3.222185 0.777928 0.594082
C -2.109709 0.735451 -0.241753
C -2.114494 -0.091935 -1.366143
C -3.242388 -0.869897 -1.634352
C -4.344594 -0.813980 -0.785917
H -10.624674 -0.881380 -0.186333
H -9.789087 0.356483 -1.179070
H -9.754641 0.462245 0.603794
H -8.342761 -1.651989 0.732324
H -6.913932 -3.536665 -3.158170
H -7.795486 -4.681213 -2.131533
H -4.807567 -3.885325 -1.765003
H -5.352720 -5.460552 -2.404013
H -5.690703 -5.013796 -0.707940
H -8.111674 1.965181 0.007601
H -5.969800 2.915844 1.981344
H -7.673817 2.574333 2.373132
H -7.264586 3.890393 1.239269
H -6.505186 3.423629 -1.058258
H -6.246726 1.762399 -1.651979
H -5.124735 2.472308 -0.466077
H -5.277910 0.791194 2.090154
H -6.098695 -2.012944 1.251381
H -4.024621 -1.149457 3.353145
H -3.659975 -2.039178 1.854954
H -4.640878 -2.804375 3.117671
H -6.435493 -0.509251 3.915354
H -6.932113 -2.189512 3.594419
H -7.758983 -0.846144 2.779534
H -3.204298 1.436238 1.474720
H -1.228449 1.353621 -0.017036
H -1.241433 -0.130706 -2.032474
H -3.262543 -1.527089 -2.515760
H -5.222609 -1.434928 -1.006788

