%NProcShared=4
%Mem=10GB
%Chk=nBA_35_opt.chk
#P wB97XD/LANL2DZ opt freq=noraman

previous condition without solvent

0 1
C -7.820847 1.835255 -1.036069
C -7.250355 0.631548 -0.177823
C -7.459858 -0.722021 -0.917301
O -7.854488 -0.895652 -2.042623
O -7.164700 -1.734711 -0.055583
C -7.302654 -3.099209 -0.507851
C -6.979148 -4.043667 0.695628
O -5.846804 0.713341 0.129498
N -5.478892 1.620519 1.160619
C -4.430598 2.510435 0.618276
C -3.861250 3.480958 1.670866
C -5.038208 3.416526 -0.468590
C -5.112403 0.846749 2.380624
C -6.382431 0.201597 3.002353
C -6.099925 -0.584142 4.294475
C -7.446333 1.261600 3.342640
C -4.002457 -0.198423 2.300269
C -4.061687 -1.295126 1.441124
C -3.029480 -2.226438 1.371471
C -1.898582 -2.076797 2.176295
C -1.822426 -0.989123 3.048065
C -2.865570 -0.068839 3.103346
H -8.888298 1.676369 -1.252752
H -7.277520 1.934471 -1.986859
H -7.723964 2.772710 -0.468894
H -7.830714 0.550176 0.754247
H -6.618129 -3.286789 -1.350597
H -8.325910 -3.273998 -0.877399
H -5.959727 -3.845547 1.062008
H -7.049684 -5.107977 0.425450
H -7.680727 -3.849109 1.522429
H -3.287649 2.967727 2.457715
H -4.663405 4.058384 2.157180
H -3.175869 4.189712 1.179147
H -5.894226 3.990496 -0.081329
H -5.370785 2.839345 -1.343922
H -4.280629 4.134067 -0.822327
H -4.793615 1.579898 3.142462
H -6.809983 -0.510821 2.275772
H -7.036690 -0.994675 4.707308
H -5.653917 0.070855 5.060472
H -5.416222 -1.433914 4.139776
H -7.069082 1.939703 4.126023
H -8.367388 0.789309 3.721335
H -7.725400 1.884733 2.478880
H -4.943159 -1.424237 0.800556
H -3.105856 -3.078172 0.680039
H -1.079349 -2.807845 2.125153
H -0.938678 -0.858066 3.689330
H -2.788755 0.783597 3.793875
C -3.133781 1.708976 -0.099581
O -2.212996 2.640433 -0.657999
Si -0.737393 2.208541 -1.362006
C 0.109363 3.778264 -2.002235
C 0.332389 1.370907 -0.040738
C -1.078401 1.010815 -2.789957
H -3.506189 1.043565 -0.895548
H -2.600487 1.094447 0.639201
H -0.492536 4.283695 -2.772786
H 1.087034 3.544849 -2.452435
H 0.285785 4.508960 -1.197862
H -0.128004 0.443825 0.333964
H 0.498144 2.026405 0.827621
H 1.321253 1.105814 -0.445496
H -1.729475 1.460174 -3.555090
H -1.569415 0.088348 -2.444094
H -0.141342 0.716854 -3.287660

