%NProcShared=4
%Mem=10GB
%Chk=nBA_32_opt.chk
#P wB97XD/LANL2DZ opt freq=noraman

previous condition without solvent

0 1
C -5.246792 2.393774 -0.260495
C -4.317646 1.269429 0.346006
C -5.147941 0.025593 0.821188
O -6.310980 -0.198741 0.600874
O -4.361832 -0.760507 1.607613
C -4.921263 -1.964614 2.173735
C -3.779553 -2.706658 2.940932
O -3.358371 0.846484 -0.634346
N -2.455320 -0.154118 -0.207189
C -2.208960 -1.089785 -1.308750
C -0.811757 -1.555035 -0.906655
C -1.149872 0.393868 0.162973
C -2.145217 -0.433711 -2.702962
C -3.277003 -2.186287 -1.348974
C -0.926528 1.931488 -0.229127
C 0.451708 2.418639 0.245937
C 0.607715 2.254214 1.766234
C 0.412974 0.793442 2.200457
C -0.950073 0.254214 1.744035
O -0.140996 -0.357904 -0.514900
H -5.983269 2.760356 0.469664
H -5.776858 2.008875 -1.145205
H -4.614356 3.237075 -0.579940
H -3.783284 1.650725 1.232322
H -5.333505 -2.600867 1.374412
H -5.754265 -1.713305 2.849581
H -2.955100 -2.933423 2.246502
H -4.119453 -3.648280 3.397084
H -3.382518 -2.057033 3.736703
H -0.234531 -2.037908 -1.706905
H -0.844304 -2.253990 -0.049448
H -3.111453 0.014577 -2.985948
H -1.892981 -1.198303 -3.454672
H -1.381765 0.357890 -2.756632
H -3.353063 -2.718412 -0.387758
H -3.045064 -2.923702 -2.132465
H -4.264928 -1.747849 -1.567264
H -1.025423 2.052943 -1.320063
H -1.709785 2.554581 0.233708
H 0.604433 3.473808 -0.039888
H 1.240674 1.840019 -0.267218
H -0.138349 2.888321 2.277544
H 1.599078 2.617638 2.088318
H 0.514936 0.701255 3.295784
H 1.214055 0.174282 1.757943
H -1.759724 0.806899 2.250821
H -1.063551 -0.805505 2.029300

