%NProcShared=4
%Mem=10GB
%Chk=nBA_39_opt.chk
#P wB97XD/LANL2DZ opt freq=noraman

previous condition without solvent

0 1
C -9.043615 1.869814 -2.383480
C -8.184031 1.779098 -1.056639
C -8.866880 0.899146 0.019780
O -9.908160 0.297505 -0.064804
O -8.097773 0.926008 1.143572
C -8.516296 0.170174 2.300074
C -7.418333 0.335986 3.399802
O -6.890002 1.206247 -1.275596
N -5.999043 2.025656 -2.005708
C -5.265784 1.203254 -2.972261
C -4.007790 2.057003 -3.094158
C -6.060101 1.041382 -4.271891
C -4.884072 -0.204457 -2.471169
O -3.713182 2.479687 -1.761401
C -4.988120 2.640151 -1.140257
C -5.342422 4.200151 -0.979615
C -5.483435 5.016759 -2.271208
C -5.895940 6.467325 -1.997198
C -6.044776 7.308046 -3.269430
C -6.468721 8.748041 -2.977550
C -4.908303 1.973399 0.328375
C -3.729685 2.456951 1.185636
C -3.682864 1.752271 2.547982
C -2.487696 2.147610 3.427193
C -2.505076 3.610724 3.875564
H -10.035832 2.302942 -2.189106
H -9.166462 0.871264 -2.828702
H -8.516480 2.508948 -3.109056
H -8.064133 2.781375 -0.609627
H -8.645644 -0.890231 2.031278
H -9.492198 0.535394 2.657542
H -6.455352 -0.042592 3.022330
H -7.663737 -0.202354 4.327430
H -7.292253 1.403157 3.640596
H -4.180271 2.945551 -3.728463
H -3.130090 1.533741 -3.497555
H -5.464185 0.501679 -5.023527
H -6.350355 2.015401 -4.696707
H -6.983184 0.467969 -4.086881
H -4.311607 -0.724772 -3.255413
H -5.774931 -0.811527 -2.242510
H -4.258805 -0.173676 -1.566081
H -4.551519 4.660059 -0.365201
H -6.281201 4.276755 -0.403941
H -6.232025 4.546134 -2.932828
H -4.525170 5.010243 -2.819043
H -5.147257 6.939173 -1.335881
H -6.852905 6.473733 -1.445014
H -6.787820 6.835557 -3.936115
H -5.086769 7.312934 -3.818898
H -6.576892 9.331945 -3.905603
H -5.722368 9.256182 -2.345774
H -7.435144 8.774195 -2.448705
H -4.831206 0.877753 0.225761
H -5.852216 2.168513 0.865251
H -3.797599 3.546756 1.338224
H -2.783763 2.270282 0.646698
H -3.655965 0.660574 2.377851
H -4.620285 1.956380 3.095481
H -1.549658 1.940971 2.881842
H -2.470880 1.502673 4.324260
H -3.427514 3.839529 4.433174
H -2.448825 4.296156 3.015275
H -1.650335 3.832456 4.534704

