%NProcShared=4
%Mem=10GB
%Chk=25.chk
#P wB97XD/LANL2DZ opt freq=noraman

previous condition without solvent

0 2 
O         -4.94031        0.35356        1.65616
N         -3.96502        1.09967        1.25403
C         -3.82391        2.39076        2.03082
C         -2.83904        3.39056        1.42066
C         -2.48450        1.20609       -0.77304
C         -2.85748        0.41194        0.48940
C         -5.21324        3.04440        2.03803
C         -3.41218        2.04754        3.47383
C         -1.63621        0.18568        1.39319
C         -3.39004       -0.95569        0.04525
H         -3.14765        3.68815        0.40941
H         -1.80591        3.02284        1.39238
H         -3.38965        1.43829       -1.35300
H         -1.83091        0.57784       -1.39724
H         -5.94120        2.39331        2.53675
H         -5.54711        3.23236        1.00654
H         -5.14855        4.00543        2.57089
H         -2.35168        1.76435        3.53247
H         -4.03214        1.21245        3.83233
H         -3.58066        2.91836        4.12644
H         -0.89520       -0.43158        0.85913
H         -1.93852       -0.35304        2.30294
H         -1.14576        1.12406        1.68665
H         -3.62114       -1.59104        0.90867
H         -2.61332       -1.43754       -0.56986
H         -4.30378       -0.83741       -0.55056
H         -2.85229        4.29193        2.05353
H         -1.95051        2.13708       -0.55805

