%NProcShared=4
%Mem=10GB
%Chk=27.chk
#P wB97XD/LANL2DZ opt freq=noraman

previous condition without solvent

0 1 
C        -11.33540        1.73885       -0.06182
C        -11.82340        1.16589       -1.23902
C        -11.18800        0.03998       -1.77133
C        -10.07700       -0.51098       -1.12834
C         -9.57505        0.05744        0.05112
C        -10.21620        1.19130        0.56673
C         -8.41689       -0.53034        0.82937
C         -7.39292       -2.66661        1.83532
C         -7.70656       -2.32761        3.28245
C         -9.01089       -2.40451        3.79323
C         -9.27381       -2.12841        5.13774
C         -8.23140       -1.77272        5.99900
C         -6.92637       -1.69674        5.50510
C         -6.67109       -1.97468        4.15966
C         -7.34068       -4.19380        1.65955
H        -11.82650        2.61431        0.36977
H        -12.70020        1.59051       -1.73336
H        -11.56140       -0.41628       -2.69007
H         -9.60059       -1.39669       -1.54959
H         -9.82954        1.64275        1.48162
H         -8.50892       -0.17270        1.86625
H         -6.39590       -2.25459        1.60877
H         -9.83579       -2.67959        3.13259
H        -10.29750       -2.19069        5.51392
H         -8.43498       -1.55100        7.04823
H         -6.10497       -1.41393        6.16645
H         -5.65154       -1.90349        3.77054
H         -7.05177       -4.45943        0.62996
H         -8.32821       -4.63700        1.86496
H         -6.61669       -4.64409        2.35455
C         -8.38891       -2.05767        0.83446
H         -9.40690       -2.42238        1.04243
H         -8.13045       -2.41171       -0.17717
O         -7.08909       -0.15869        0.33906
N         -6.93333        1.27416        0.25195
C         -6.05401        1.76508        1.37067
C         -6.06832        3.30055        1.34921
P         -7.59018        2.96392       -1.85462
C         -6.47609        1.65597       -1.11093
C         -6.66052        1.31851        2.70475
C         -4.60785        1.25576        1.30006
C         -6.01669        0.56335       -2.15572
H         -7.09452        3.67539        1.44171
H         -5.63465        3.72430        0.43244
H         -6.63105        0.22861        2.82160
H         -7.69878        1.66711        2.79947
H         -6.07518        1.76135        3.52456
H         -4.58657        0.15865        1.27211
H         -4.05774        1.59719        2.18910
H         -4.08628        1.64085        0.41378
C         -5.54143        1.29364       -3.43156
C         -7.08590       -0.45952       -2.57485
C         -4.79944       -0.19510       -1.59921
H         -5.46782        3.65647        2.19833
O         -6.84140        4.03069       -2.58405
O         -8.71265        2.22429       -2.77843
O         -8.44512        3.48665       -0.58157
C         -9.47240        4.47023       -0.88114
C         -9.93275        5.07428        0.42995
C         -9.07741        2.86391       -4.03626
C        -10.05980        1.95413       -4.74353
H         -5.56746        2.27411       -0.99665
H         -5.06209        0.55350       -4.08992
H         -4.81972        2.09040       -3.19941
H         -6.37346        1.75076       -3.98513
H         -7.30100       -1.15757       -1.76004
H         -6.69359       -1.03328       -3.43048
H         -8.01708        0.02946       -2.88141
H         -4.46648       -0.92671       -2.35406
H         -5.04967       -0.73136       -0.67569
H         -3.96111        0.48924       -1.40066
H        -10.29950        3.95079       -1.39391
H         -9.05214        5.23900       -1.54992
H        -10.73280        5.80641        0.24629
H         -9.09767        5.58332        0.93328
H        -10.31670        4.28904        1.09712
H         -8.16399        3.03349       -4.62873
H         -9.52347        3.84843       -3.82326
H        -10.94960        1.78773       -4.11890
H         -9.59820        0.97903       -4.95573
H        -10.37020        2.41124       -5.69452

