%NProcShared=4
%Mem=10GB
%Chk=29.chk
#P wB97XD/LANL2DZ opt freq=noraman

previous condition without solvent

0 1 
C         -6.42155        1.73394        3.28273
C         -7.41726        1.57022        4.24962
C         -8.44848        0.64819        4.03500
C         -8.48623       -0.09665        2.85500
C         -7.50246        0.07502        1.86857
C         -6.46471        0.98238        2.10448
C         -7.56830       -0.67061        0.55713
C         -6.69803       -2.89997        1.46865
C         -7.12787       -4.30661        1.82538
C         -7.55005       -5.19919        0.82921
C         -7.95684       -6.49346        1.15455
C         -7.94606       -6.92035        2.48668
C         -7.52472       -6.04158        3.48675
C         -7.12027       -4.74604        3.15411
C         -5.40547       -2.91721        0.63658
H         -5.60986        2.44619        3.44550
H         -7.38747        2.15480        5.17133
H         -9.22441        0.51223        4.79111
H         -9.29530       -0.81128        2.68917
H         -5.69642        1.11292        1.33936
H         -6.62318       -0.50557        0.02164
H         -6.50905       -2.35513        2.40923
H         -7.56398       -4.87279       -0.21320
H         -8.28644       -7.17459        0.36773
H         -8.26401       -7.93216        2.74260
H         -7.51236       -6.36439        4.52945
H         -6.79488       -4.05455        3.93511
H         -5.05863       -1.89597        0.41583
H         -5.57962       -3.43438       -0.32099
H         -4.60376       -3.44828        1.16976
C         -7.82619       -2.16623        0.71982
H         -8.78232       -2.31750        1.24506
H         -7.94970       -2.59898       -0.28731
O         -8.65544       -0.21158       -0.28575
N         -8.29497        1.01617       -0.97884
C         -8.08609        0.66320       -2.42293
C         -9.30901        0.02667       -3.09847
C         -9.35168        2.03428       -0.68727
C         -7.65343        1.93804       -3.16450
C         -6.91212       -0.32744       -2.49376
C         -8.95305        2.86906        0.55644
H        -10.11800        0.75412       -3.24294
H         -9.69019       -0.79785       -2.47847
H         -6.86920        2.46140       -2.59593
H         -8.49258        2.62873       -3.33602
H         -7.25090        1.65521       -4.14884
H         -7.16319       -1.27481       -1.99659
H         -6.01419        0.10307       -2.02426
H         -6.68777       -0.54167       -3.54925
C        -10.01760        3.93239        0.85160
C         -7.59421        3.53697        0.33653
H         -9.02017       -0.37292       -4.08359
H         -9.32511        2.73551       -1.53561
H        -10.15390        4.59079       -0.02458
H         -9.70240        4.56079        1.69995
H        -10.99170        3.48056        1.08947
H         -7.67274        4.29908       -0.45876
H         -6.84323        2.79493        0.03545
H         -7.25454        4.03269        1.25982
C        -10.77100        1.49727       -0.59977
C        -11.70380        1.78347       -1.60376
C        -13.00570        1.28014       -1.55053
C        -13.39900        0.48644       -0.46929
C        -12.48890        0.22470        0.55949
C        -11.19060        0.73146        0.49842
H         -8.88144        2.18789        1.41935
H        -11.39880        2.41076       -2.44621
H        -13.71280        1.50762       -2.35111
H        -14.41070        0.07986       -0.42582
H        -12.79370       -0.38053        1.41659
H        -10.48720        0.53780        1.30720

