%NProcShared=4
%Mem=10GB
%Chk=32.chk
#P wB97XD/LANL2DZ opt freq=noraman

previous condition without solvent

0 1 
C         -4.70513       -0.09815        5.62302
C         -6.00526       -0.54872        5.86594
C         -6.71498       -1.20216        4.85246
C         -6.12568       -1.39708        3.60067
C         -4.82570       -0.94206        3.34360
C         -4.12146       -0.29506        4.36810
C         -4.18632       -1.08900        1.98626
C         -3.65762       -2.71392        0.05405
C         -2.17672       -2.75174        0.37189
C         -1.69141       -3.51413        1.44430
C         -0.32632       -3.55958        1.73217
C          0.58289       -2.84571        0.94679
C          0.11484       -2.09058       -0.13020
C         -1.25378       -2.05463       -0.41583
C         -4.10364       -4.04139       -0.57901
H         -4.14782        0.41238        6.41024
H         -6.46666       -0.39276        6.84289
H         -7.73077       -1.55761        5.03780
H         -6.68995       -1.89712        2.81150
H         -3.11312        0.06842        4.15993
H         -3.09428       -1.01000        2.11012
H         -3.82853       -1.90379       -0.67358
H         -2.39145       -4.07712        2.06583
H          0.02923       -4.15621        2.57508
H          1.65002       -2.87700        1.17503
H          0.81332       -1.52597       -0.75105
H         -1.61415       -1.46532       -1.26222
H         -5.17297       -4.00881       -0.84270
H         -3.94786       -4.87147        0.13088
H         -3.52129       -4.25928       -1.48656
C         -4.51518       -2.41058        1.29578
H         -4.39446       -3.21968        2.03455
H         -5.57729       -2.40978        0.99875
O         -4.62715       -0.06074        1.05123
N         -4.12429        1.23439        1.47154
C         -5.17235        2.31374        1.27090
O         -4.51160        3.32902        0.46760
C         -3.11366        3.13336        0.67422
C         -2.95442        1.61567        0.61355
C         -1.64672        1.13781        1.23911
C         -3.08857        1.14787       -0.84005
H         -2.56406        3.64599       -0.12711
H         -2.78715        3.52604        1.65771
H         -1.53569        0.04706        1.15628
H         -1.60653        1.42967        2.29960
H         -0.79559        1.59322        0.70864
H         -2.21028        1.48432       -1.41516
H         -3.99563        1.57183       -1.29525
H         -3.14386        0.05426       -0.88423
C         -5.52907        2.96727        2.61503
C         -6.51914        2.16170        3.45852
C         -7.78940        1.84653        2.66222
C         -7.44471        1.10445        1.36581
C         -6.43334        1.88535        0.51494
H         -4.59863        3.15527        3.17214
H         -5.97686        3.94291        2.36092
H         -6.76572        2.73040        4.36947
H         -6.05404        1.22349        3.78444
H         -8.31941        2.78598        2.41942
H         -8.47081        1.23302        3.27378
H         -8.35468        0.93113        0.76865
H         -7.02137        0.12124        1.61885
H         -6.89684        2.82979        0.18127
H         -6.14699        1.32013       -0.38389

