%NProcShared=4
%Mem=10GB
%Chk=35.chk
#P wB97XD/LANL2DZ opt freq=noraman

previous condition without solvent

0 1 
C         -5.60944        1.80281        1.83699
C         -6.33956        1.90949        3.02593
C         -7.41594        1.04097        3.25916
C         -7.75727        0.07664        2.30669
C         -7.04705       -0.02138        1.09826
C         -5.96591        0.84289        0.88204
C         -7.42700       -1.03770        0.04567
C         -6.11186       -2.94073        1.13133
C         -6.22449       -4.30016        1.78858
C         -6.70547       -5.41730        1.08524
C         -6.76156       -6.67702        1.68957
C         -6.33420       -6.84284        3.01423
C         -5.85821       -5.73695        3.72716
C         -5.80662       -4.47871        3.11664
C         -5.03266       -2.96369        0.03321
H         -4.76604        2.47151        1.64991
H         -6.06724        2.65815        3.77203
H         -7.98572        1.11421        4.18801
H         -8.58854       -0.60645        2.49671
H         -5.40905        0.76772       -0.05522
H         -6.69119       -0.97762       -0.76619
H         -5.79237       -2.22488        1.90796
H         -7.03615       -5.30020        0.04958
H         -7.13662       -7.53374        1.12421
H         -6.37128       -7.82767        3.48475
H         -5.52305       -5.85317        4.76073
H         -5.43149       -3.61522        3.67373
H         -4.82175       -1.95056       -0.34305
H         -5.36182       -3.58589       -0.81629
H         -4.09425       -3.38791        0.42203
C         -7.47203       -2.46594        0.58783
H         -8.23155       -2.53164        1.38370
H         -7.80317       -3.13100       -0.22648
O         -8.74207       -0.79453       -0.52323
N         -8.65477        0.23871       -1.54481
C         -8.79692       -0.39826       -2.89610
C         -7.82633       -1.58201       -2.99891
C         -9.63706        1.31884       -1.22303
C        -10.20780       -0.89200       -3.23792
C         -8.33249        0.68956       -3.89980
C         -8.95791        2.41981       -0.36549
H         -6.78906       -1.26881       -2.81064
H         -7.88171       -1.98721       -4.01758
H        -10.18980       -1.39238       -4.21865
H        -10.92310       -0.06092       -3.29174
H        -10.55640       -1.60020       -2.47216
O         -8.14256        0.14330       -5.21118
H         -7.40495        1.13766       -3.49590
H         -9.08586        1.49221       -3.97661
C         -9.94737        3.54431       -0.03526
C         -7.73950        2.99386       -1.09409
H         -8.10680       -2.36578       -2.28363
H         -9.86761        1.79402       -2.19112
H        -10.80350        3.18182        0.55356
H        -10.33990        3.99665       -0.96380
H         -9.44113        4.33849        0.53695
H         -8.05641        3.49813       -2.02576
H         -7.02826        2.19775       -1.35409
H         -7.22585        3.73532       -0.46064
C        -10.96840        0.88194       -0.62609
C        -12.16480        1.07811       -1.33263
C        -13.40340        0.73896       -0.77417
C        -13.46460        0.20141        0.51629
C        -12.28030        0.02636        1.24384
C        -11.04850        0.37136        0.67973
H         -8.62370        1.95488        0.57645
H        -12.12990        1.51398       -2.33457
H        -14.31980        0.90345       -1.34437
H        -14.42720       -0.06728        0.95717
H        -12.31590       -0.37706        2.25814
H        -10.13430        0.25514        1.25632
Si        -6.68504        0.43597       -5.99585
C         -6.78871       -0.50039       -7.61462
C         -6.47390        2.28502       -6.27296
C         -5.23800       -0.18497       -4.96078
H         -6.91497       -1.58036       -7.43624
H         -5.86742       -0.35850       -8.20368
H         -7.63990       -0.15355       -8.22341
H         -5.51873        2.50522       -6.77894
H         -6.47548        2.83200       -5.31423
H         -7.29098        2.68944       -6.89320
H         -5.21138        0.30189       -3.97134
H         -4.27957        0.03159       -5.46269
H         -5.29767       -1.27308       -4.79774

