%NProcShared=4
%Mem=10GB
%Chk=36.chk
#P wB97XD/LANL2DZ opt freq=noraman

previous condition without solvent

0 1 
C         -5.01157       -2.90878        2.39151
C         -5.00138       -1.73439        3.14736
C         -6.00100       -0.77317        2.95052
C         -7.00844       -0.99387        2.00986
C         -7.01888       -2.16664        1.23633
C         -6.01525       -3.11958        1.43947
C         -8.13853       -2.40174        0.24652
C         -9.45021       -3.57039        2.15405
C        -10.75220       -3.45923        2.91640
C        -11.97400       -3.75478        2.29700
C        -13.17930       -3.58803        2.97936
C        -13.17980       -3.12569        4.29863
C        -11.96790       -2.83283        4.92705
C        -10.76500       -2.99780        4.23652
C         -9.19736       -4.98949        1.62886
H         -4.23220       -3.65959        2.53417
H         -4.21164       -1.56105        3.88167
H         -5.99165        0.15150        3.53162
H         -7.77939       -0.23927        1.84146
H         -6.01149       -4.03117        0.83770
H         -7.93880       -3.29616       -0.36018
H         -8.63385       -3.30657        2.84624
H        -11.97850       -4.10930        1.26402
H        -14.12260       -3.81412        2.47882
H        -14.12160       -2.98534        4.83144
H        -11.95920       -2.47251        5.95673
H         -9.81507       -2.75881        4.72120
H         -8.20563       -5.05737        1.15607
H         -9.95340       -5.26817        0.87778
H         -9.24197       -5.72338        2.44631
C         -9.46524       -2.54329        1.00642
H         -9.72249       -1.55132        1.41504
H        -10.26100       -2.82769        0.30645
O         -8.22521       -1.25497       -0.66009
N         -8.16419       -1.63433       -2.06928
C         -9.44306       -1.14731       -2.70951
C        -10.63370       -1.73993       -1.95343
C         -6.94082       -1.02309       -2.71003
C         -9.57191        0.38388       -2.70588
C         -9.51326       -1.69810       -4.14354
C         -5.85519       -2.10036       -3.05411
H        -10.74570       -1.26911       -0.97060
H        -10.50790       -2.82591       -1.83075
H         -8.86413        0.85384       -3.40274
H         -9.37458        0.76953       -1.69485
H        -10.59070        0.67688       -3.00340
H         -9.41045       -2.79201       -4.14246
H         -8.74966       -1.27954       -4.81381
H        -10.49530       -1.43506       -4.56342
C         -6.48927       -3.14779       -3.98120
C         -5.29497       -2.82286       -1.82986
H        -11.54710       -1.55477       -2.53736
H         -7.27549       -0.68350       -3.70102
H         -7.33633       -3.63909       -3.48124
H         -5.73705       -3.90734       -4.24509
H         -6.85483       -2.68500       -4.91260
H         -6.10529       -3.29922       -1.26494
H         -4.73823       -2.15247       -1.16238
H         -4.60202       -3.61291       -2.16021
C         -6.37494        0.22076       -2.04854
C         -6.33613        1.41929       -2.77830
C         -5.79668        2.58631       -2.23983
C         -5.27944        2.56854       -0.94178
C         -5.29093        1.38222       -0.20390
C         -5.82365        0.22123       -0.76159
C         -4.71448       -1.40046       -3.80890
H         -6.73489        1.43836       -3.79449
H         -5.77616        3.50966       -2.82022
C         -4.74496        3.83227       -0.34761
H         -4.87632        1.35517        0.80292
H         -5.81055       -0.69029       -0.17506
H         -4.00974       -2.15324       -4.19183
H         -4.16664       -0.70425       -3.15767
H         -5.10619       -0.82625       -4.66536
F         -4.06618        4.59281       -1.26662
F         -3.88865        3.60763        0.69686
F         -5.75128        4.63486        0.14160

