%NProcShared=4
%Mem=10GB
%Chk=39.chk
#P wB97XD/LANL2DZ opt freq=noraman

previous condition without solvent

0 1 
C         -4.50022        1.19339       -2.33873
C         -3.47255        0.30304       -2.65842
C         -3.13427       -0.71658       -1.76311
C         -3.82680       -0.84780       -0.55753
C         -4.85799        0.04064       -0.22654
C         -5.18375        1.05949       -1.12821
C         -5.61758       -0.06280        1.07581
C         -6.92136       -1.60339        2.68054
C         -8.01788       -0.56937        2.82582
C         -8.82974       -0.20396        1.74195
C         -9.82397        0.76804        1.88715
C        -10.02670        1.38710        3.12511
C         -9.23585        1.02045        4.21767
C         -8.24187        0.04977        4.06309
C         -7.49960       -3.02372        2.79060
H         -4.75982        1.99764       -3.02886
H         -2.93136        0.40850       -3.60014
H         -2.32802       -1.41168       -2.00543
H         -3.54565       -1.63480        0.14404
H         -5.97768        1.76108       -0.86227
H         -6.47776        0.62334        1.02112
H         -6.21259       -1.44511        3.51023
H         -8.67153       -0.67614        0.76953
H        -10.43940        1.04676        1.02950
H        -10.79770        2.15201        3.23526
H         -9.38654        1.49623        5.18863
H         -7.61306       -0.22719        4.91241
H         -6.69928       -3.77659        2.70879
H         -8.22508       -3.19975        1.97866
H         -8.02143       -3.16471        3.74881
C         -6.13080       -1.47074        1.36632
H         -6.75842       -1.77808        0.51193
H         -5.28441       -2.17656        1.39553
O         -4.82270        0.31108        2.23255
N         -4.43295        1.69305        2.09731
C         -2.97860        1.85971        2.42353
O         -2.93390        3.13823        3.11187
C         -4.22309        3.75560        2.97767
C         -5.20494        2.58546        3.00401
C         -6.55678        2.92997        2.38292
C         -5.37785        2.05704        4.43466
H         -4.36284        4.44487        3.82349
H         -4.30196        4.30838        2.02273
H         -7.03113        3.75335        2.94037
H         -7.23880        2.06798        2.42742
H         -6.42006        3.23506        1.33351
H         -6.11489        2.67759        4.96939
H         -4.42321        2.08873        4.97926
H         -5.75112        1.02555        4.40769
C         -2.40341        0.80509        3.38991
C         -1.95161       -0.51503        2.75857
C         -1.59794       -1.56622        3.80922
C         -1.20799       -2.90693        3.18586
C         -0.84444       -3.96189        4.23077
C         -2.16635        1.93780        1.12777
C         -2.55709        3.07817        0.19362
C         -1.78094        3.01691       -1.12231
C         -2.29341        4.00472       -2.16980
C         -1.56417        3.86619       -3.50651
H         -3.15488        0.59513        4.16460
H         -1.54818        1.28898        3.88950
H         -1.07932       -0.34425        2.10550
H         -2.75657       -0.90222        2.11692
H         -2.46208       -1.71454        4.48318
H         -0.77009       -1.20124        4.44513
H         -0.35882       -2.75169        2.49675
H         -2.04769       -3.26733        2.56356
H         -1.69286       -4.14541        4.91056
H          0.00562       -3.62302        4.84636
H         -0.56581       -4.92080        3.76601
H         -2.29361        0.98248        0.59472
H         -1.09978        2.01838        1.40225
H         -2.38609        4.04659        0.69436
H         -3.63682        2.99777       -0.01327
H         -1.85986        1.99562       -1.53124
H         -0.70637        3.19800       -0.93685
H         -2.19482        5.03570       -1.78719
H         -3.37372        3.82811       -2.31387
H         -1.69211        2.84641       -3.90693
H         -0.48252        4.03862       -3.38305
H         -1.93758        4.57784       -4.25846

