%NProcShared=4
%Mem=10GB
%Chk=41.chk
#P wB97XD/LANL2DZ opt freq=noraman

previous condition without solvent

0 1 
C         -6.23389        1.66102        3.24824
C         -7.22295        1.53005        4.22659
C         -8.30078        0.66273        4.01538
C         -8.39037       -0.06431        2.82807
C         -7.40769        0.07142        1.83451
C         -6.32818        0.92698        2.06200
C         -7.54383       -0.65464        0.51870
C         -6.66933       -2.88346        1.41498
C         -7.12099       -4.27427        1.80333
C         -7.31568       -5.27133        0.83566
C         -7.75573       -6.54514        1.19833
C         -8.01365       -6.84122        2.54075
C         -7.82993       -5.85326        3.51309
C         -7.38926       -4.58075        3.14340
C         -5.39234       -2.90713        0.56142
H         -5.39164        2.33721        3.40613
H         -7.15492        2.10398        5.15246
H         -9.07440        0.55984        4.77820
H         -9.24196       -0.72409        2.65209
H         -5.56887        1.03341        1.28469
H         -6.62706       -0.49864       -0.06890
H         -6.46014       -2.32956        2.34536
H         -7.11714       -5.04462       -0.21426
H         -7.89854       -7.31113        0.43265
H         -8.35530       -7.83625        2.82831
H         -8.02687       -6.07707        4.56310
H         -7.24543       -3.80522        3.90100
H         -5.58778       -3.37971       -0.41509
H         -4.59503       -3.47559        1.06247
H         -5.02553       -1.88630        0.37319
C         -7.81203       -2.14826        0.68646
H         -8.75408       -2.28739        1.23942
H         -7.96257       -2.59543       -0.31082
O         -8.66497       -0.15066       -0.24187
N         -8.28369        1.08853       -0.92073
C         -8.22909        0.76675       -2.36998
C         -9.33455        2.10077       -0.57961
C         -7.68408        1.98042       -3.13135
C         -7.29648       -0.42177       -2.61370
C         -8.96829        2.85683        0.71540
H         -7.47877        1.69357       -4.17424
H         -6.74127        2.31152       -2.66634
H         -8.37994        2.83101       -3.15011
H         -7.24661       -0.62742       -3.69362
H         -7.64998       -1.32537       -2.10061
H         -6.27866       -0.18535       -2.26323
C        -10.05290        3.88020        1.06882
C         -7.61991        3.56188        0.55261
H         -9.28677        2.84921       -1.38570
H        -11.02710        3.40367        1.25061
H        -10.17870        4.60247        0.24229
H         -9.76298        4.44472        1.96863
H         -7.70636        4.37759       -0.18676
H         -6.85479        2.85488        0.20637
H         -7.29304        3.99522        1.51093
C        -10.73290        1.51432       -0.59078
C        -11.51560        1.57164       -1.75099
C        -12.79240        1.00178       -1.78734
C        -13.30200        0.36407       -0.65628
C        -12.52970        0.30323        0.51011
C        -11.25580        0.86690        0.53750
H         -8.88393        2.12707        1.53440
H        -11.12180        2.08765       -2.63031
H        -13.39030        1.06348       -2.69872
H        -14.30030       -0.07697       -0.67363
H        -12.92600       -0.19062        1.39956
H        -10.64820        0.80838        1.44173
H         -9.23991        0.50516       -2.73980

