%NProcShared=4
%Mem=10GB
%Chk=42.chk
#P wB97XD/LANL2DZ opt freq=noraman

previous condition without solvent

0 1 
C         -6.06927        1.62554        3.37301
C         -6.87247        1.31647        4.47460
C         -7.87346        0.34482        4.35289
C         -8.07262       -0.30469        3.13497
C         -7.27852        0.00585        2.01901
C         -6.26788        0.96371        2.15791
C         -7.51901       -0.66077        0.68629
C         -6.64560       -2.91251        1.54732
C         -7.06379       -4.34828        1.77089
C         -7.31496       -5.19948        0.68565
C         -7.73990       -6.51320        0.88748
C         -7.91737       -7.00020        2.18622
C         -7.66761       -6.16210        3.27548
C         -7.24479       -4.84707        3.06603
C         -5.31972       -2.80218        0.77924
H         -5.28912        2.38345        3.45965
H         -6.71840        1.82942        5.42524
H         -8.49831        0.09583        5.21250
H         -8.86108       -1.05336        3.04215
H         -5.64850        1.20031        1.29024
H         -6.64389       -0.48126        0.04624
H         -6.50803       -2.44489        2.53692
H         -7.18534       -4.82235       -0.33223
H         -7.93485       -7.15819        0.02884
H         -8.25146       -8.02665        2.34871
H         -7.80057       -6.53384        4.29386
H         -7.05670       -4.18829        3.91773
H         -5.43822       -3.16584       -0.25484
H         -4.53563       -3.40142        1.26623
H         -4.98113       -1.75541        0.73979
C         -7.77596       -2.16005        0.81927
H         -8.72763       -2.31941        1.35013
H         -7.90735       -2.58863       -0.18633
O         -8.69172       -0.13464        0.00940
N         -8.33712        1.05335       -0.77013
C         -8.24516        0.64731       -2.21062
C         -9.44142        2.05752       -0.62008
C         -7.48200        1.74607       -2.96264
C         -7.51001       -0.67562       -2.41289
C         -9.18377        3.17069        0.44797
H         -7.35763        1.45144       -4.01673
H         -6.48605        1.87088       -2.50836
H         -7.98738        2.72290       -2.94348
H         -7.47457       -0.89273       -3.49146
H         -8.02364       -1.50129       -1.90905
H         -6.47246       -0.61501       -2.04839
C        -10.15390        4.32143        0.12725
C         -7.74468        3.67547        0.27844
H         -9.37776        2.62401       -1.56152
H        -11.20000        3.98417        0.18901
H         -9.97637        4.71491       -0.88876
H        -10.00650        5.14433        0.84546
H         -7.55506        3.97072       -0.76787
H         -7.02565        2.89153        0.54748
H         -7.58011        4.55296        0.92423
C        -10.84410        1.47344       -0.60646
C        -11.69930        1.74175       -1.68630
C        -13.00660        1.24988       -1.72105
C        -13.48330        0.46889       -0.66774
C        -12.64340        0.19181        0.41557
C        -11.33980        0.68728        0.44689
C         -9.41807        2.74493        1.90034
H        -11.33200        2.36069       -2.50966
H        -13.64990        1.47385       -2.57419
H        -14.50270        0.08092       -0.68679
H        -13.00650       -0.41947        1.24502
H        -10.69200        0.45464        1.28805
H         -9.26522        0.53655       -2.63149
H         -9.13477        3.57517        2.56828
H         -8.81569        1.87314        2.17246
H        -10.47960        2.51616        2.07641

