%NProcShared=4
%Mem=10GB
%Chk=nBA_36_opt.chk
#P wB97XD/LANL2DZ opt freq=noraman

previous condition without solvent

0 1
C -9.445236 0.381189 -0.223288
C -8.096087 0.779372 -0.966357
C -8.310141 2.011731 -1.884472
O -9.304770 2.683630 -1.997913
O -7.170896 2.223736 -2.603286
C -7.128490 3.353429 -3.502363
C -5.748926 3.349418 -4.237181
O -6.987249 1.117066 -0.117280
N -6.704210 0.225801 0.950283
C -6.693483 1.058282 2.171224
C -6.494772 0.240600 3.461109
C -5.625460 2.166903 2.145696
C -8.059553 1.749767 2.346116
C -5.430814 -0.522994 0.634819
C -5.752133 -2.047469 0.401615
C -6.398079 -2.629782 1.676415
C -6.722514 -2.388690 -0.741784
C -4.452008 -2.842493 0.170710
C -4.452949 0.021178 -0.413589
C -3.179974 0.435124 -0.014827
C -2.254845 0.936756 -0.916756
C -2.529742 1.006045 -2.284912
C -3.825683 0.655231 -2.671317
C -4.749930 0.158350 -1.766278
C -1.567724 1.673883 -3.257715
F -1.758857 3.001542 -3.289705
F -1.724056 1.217455 -4.511133
F -0.285486 1.462227 -2.918783
H -9.862789 1.227769 0.340764
H -9.248959 -0.445066 0.476908
H -10.194858 0.045077 -0.955659
H -7.797740 -0.046263 -1.631141
H -7.263750 4.287819 -2.934112
H -7.956808 3.293222 -4.226087
H -4.933879 3.387624 -3.497692
H -5.636537 4.204682 -4.920459
H -5.637906 2.423067 -4.821631
H -5.512926 -0.253159 3.516936
H -6.572611 0.912515 4.331144
H -7.268339 -0.537157 3.563589
H -5.717873 2.786294 3.051931
H -5.745948 2.825165 1.269939
H -4.602794 1.761452 2.119094
H -8.058147 2.349830 3.269997
H -8.872738 1.011317 2.425679
H -8.292950 2.431158 1.512873
H -4.833649 -0.549747 1.561155
H -6.571936 -3.713741 1.568066
H -7.374798 -2.163139 1.885185
H -5.760328 -2.488122 2.563728
H -6.872352 -3.482132 -0.774653
H -6.355264 -2.089781 -1.733825
H -7.713447 -1.936289 -0.588587
H -3.955119 -2.566902 -0.773765
H -4.661199 -3.924531 0.121463
H -3.729397 -2.683140 0.987871
H -2.900418 0.370006 1.047197
H -1.267121 1.254863 -0.548149
H -4.117111 0.746819 -3.729040
H -5.746174 -0.114137 -2.131704

