%NProcShared=4
%Mem=10GB
%Chk=nBA_29_opt.chk
#P wB97XD/LANL2DZ opt freq=noraman

previous condition without solvent

0 1
C -3.361868 0.871151 -3.412098
C -4.194310 -0.348806 -2.824975
C -3.388294 -1.670342 -2.942616
O -2.251743 -1.809879 -3.320329
O -4.195030 -2.706999 -2.579171
C -3.657865 -4.046853 -2.625687
C -4.781949 -5.038641 -2.183717
O -4.576133 -0.232155 -1.443155
N -5.373398 0.892996 -1.100973
C -4.710362 1.588185 0.020642
C -4.489281 0.719672 1.272487
C -5.462134 2.860271 0.451925
C -3.316180 2.064935 -0.428081
C -6.787178 0.466169 -0.882466
C -7.456686 0.130398 -2.246132
C -7.332338 1.289198 -3.250668
C -8.953742 -0.200655 -2.117813
C -7.095294 -0.658795 0.103180
C -6.571416 -1.944089 -0.031764
C -6.870542 -2.953803 0.878957
C -7.718617 -2.694432 1.957242
C -8.260520 -1.416483 2.104838
C -7.948786 -0.419646 1.184398
H -3.151464 0.706314 -4.479857
H -2.408111 0.999254 -2.880530
H -3.947792 1.797332 -3.314986
H -5.095777 -0.491885 -3.441104
H -2.781713 -4.124733 -1.962363
H -3.312039 -4.278009 -3.645922
H -5.100166 -4.808831 -1.155226
H -4.454310 -6.088468 -2.218425
H -5.656309 -4.925248 -2.843471
H -3.936369 -0.202921 1.033986
H -5.428978 0.428863 1.764012
H -3.900084 1.289709 2.008150
H -6.443485 2.643626 0.901855
H -5.625301 3.534058 -0.404745
H -4.868418 3.399937 1.206868
H -3.380626 2.729644 -1.303394
H -2.655698 1.220801 -0.681273
H -2.832424 2.627385 0.386344
H -7.341534 1.352176 -0.528266
H -6.964081 -0.759743 -2.673431
H -7.782115 1.020524 -4.220177
H -6.288261 1.579341 -3.442318
H -7.857994 2.180698 -2.870152
H -9.143797 -1.087458 -1.492152
H -9.389546 -0.406108 -3.109821
H -9.504715 0.646288 -1.677736
H -5.906065 -2.164463 -0.876950
H -6.437449 -3.955601 0.747959
H -7.957611 -3.487714 2.679286
H -8.931886 -1.196576 2.947623
H -8.382467 0.582495 1.315360

