%NProcShared=4
%Mem=10GB
%Chk=nBA_28_opt.chk
#P wB97XD/LANL2DZ opt freq=noraman

previous condition without solvent

0 1
C -6.128772 0.954900 1.574219
C -5.804753 1.178894 0.038063
C -6.538915 2.423266 -0.524706
O -7.228990 3.209724 0.074304
O -6.309114 2.488780 -1.866066
C -6.886814 3.577112 -2.618669
C -6.444788 3.419833 -4.109664
O -4.412168 1.383747 -0.241865
N -3.563587 0.287459 0.054400
C -3.376985 -0.605506 -1.148009
C -1.888277 -0.930945 -1.404086
C -1.002060 -1.254752 -0.134524
C -1.461819 -0.387743 1.120467
C -2.385975 0.797783 0.776361
C -2.858416 1.392579 2.117765
C -1.621715 1.930944 0.065763
C -3.920527 0.008190 -2.454064
C -4.129176 -1.913112 -0.857386
O 0.338751 -0.959041 -0.510337
H -7.207631 0.802959 1.727750
H -5.800611 1.817505 2.172438
H -5.596074 0.059083 1.928974
H -6.168071 0.316165 -0.545755
H -6.545676 4.541063 -2.208586
H -7.984664 3.557789 -2.529358
H -5.345319 3.434695 -4.173252
H -6.841499 4.219311 -4.753287
H -6.793910 2.451750 -4.501650
H -1.408216 -0.071674 -1.900917
H -1.829717 -1.748551 -2.143785
H -1.086963 -2.328276 0.114703
H -0.574135 -0.018046 1.655351
H -2.010059 -1.033717 1.829536
H -3.421321 0.654832 2.711126
H -3.507950 2.269772 1.965701
H -1.991030 1.718338 2.713226
H -1.201171 1.652910 -0.909357
H -0.785854 2.255579 0.705043
H -2.279687 2.799454 -0.100555
H -3.709380 -0.674690 -3.291921
H -3.439758 0.976112 -2.670338
H -5.007854 0.173483 -2.428626
H -3.745757 -2.392210 0.057944
H -4.015261 -2.622620 -1.691355
H -5.205414 -1.730721 -0.710216
H 0.896921 -1.229762 0.209794

