%NProcShared=4
%Mem=10GB
%Chk=35.chk
#P wB97XD/LANL2DZ opt freq=noraman

previous condition without solvent

0 2 
O         -8.34520       -0.52443       -0.17070
N         -8.55710        0.17458       -1.23298
C         -8.46836       -0.54832       -2.54613
C         -7.10774       -1.25230       -2.58113
C         -9.32849        1.43621       -1.07445
C         -9.60924       -1.57117       -2.63779
C         -8.56271        0.46633       -3.70461
C         -8.80797        2.22327        0.14749
H         -6.28983       -0.51676       -2.52767
H         -7.01999       -1.81735       -3.51833
H         -9.50766       -2.13938       -3.57335
H        -10.58880       -1.06935       -2.62657
H         -9.54941       -2.25584       -1.77915
O         -8.37765       -0.20665       -4.95068
H         -7.80190        1.25701       -3.54380
H         -9.55996        0.94031       -3.71187
C         -9.58929        3.53248        0.29595
C         -7.30762        2.49685        0.00920
H         -7.02825       -1.93393       -1.72402
H         -9.13224        2.05525       -1.96365
H        -10.66770        3.35297        0.41700
H         -9.44479        4.17185       -0.59254
H         -9.22536        4.09194        1.17226
H         -7.11061        3.09064       -0.90064
H         -6.73459        1.56034       -0.04776
H         -6.94438        3.07879        0.87209
C        -10.81540        1.14610       -1.00774
C        -11.70220        1.78768       -1.88398
C        -13.07890        1.54414       -1.81207
C        -13.58070        0.64607       -0.86442
C        -12.69780       -0.00460        0.00908
C        -11.32460        0.24688       -0.05787
H         -8.97792        1.59161        1.03313
H        -11.30890        2.48842       -2.62515
H        -13.75780        2.05400       -2.49957
H        -14.65410        0.45336       -0.80583
H        -13.08220       -0.70979        0.74829
H        -10.62800       -0.26899        0.60629
Si        -7.28221        0.38782       -6.07911
C         -7.38979       -0.78724       -7.53263
C         -7.77112        2.13662       -6.57266
C         -5.54626        0.40966       -5.35318
H         -7.13606       -1.81700       -7.23360
H         -6.68957       -0.48227       -8.32813
H         -8.40523       -0.79650       -7.96002
H         -7.06982        2.55123       -7.31615
H         -7.76739        2.81522       -5.70256
H         -8.78174        2.15660       -7.01249
H         -5.48289        1.06024       -4.46457
H         -4.82018        0.78824       -6.09228
H         -5.22988       -0.60099       -5.05013

