%NProcShared=4
%Mem=10GB
%Chk=24.chk
#P wB97XD/LANL2DZ opt freq=noraman

previous condition without solvent

0 1 
C         -6.88539        0.47954       -2.37799
C         -6.89582       -0.84642       -2.81640
C         -6.76711       -1.87977       -1.88478
C         -6.60827       -1.58902       -0.52839
C         -6.57821       -0.26206       -0.07526
C         -6.72960        0.76219       -1.02106
C         -6.39518        0.11168        1.38271
C         -6.95689       -0.50668        3.84530
C         -7.63402        0.81537        4.15705
C         -8.93660        1.10263        3.72338
C         -9.55076        2.31232        4.04933
C         -8.87420        3.25994        4.82056
C         -7.58229        2.98310        5.26946
C         -6.97148        1.77402        4.93457
C         -7.55160       -1.62458        4.72044
H         -6.99954        1.29384       -3.09622
H         -7.01368       -1.07465       -3.87684
H         -6.78893       -2.91947       -2.21748
H         -6.50654       -2.41118        0.18270
H         -6.72589        1.79770       -0.67886
H         -6.88579        1.08538        1.53663
H         -5.89301       -0.39460        4.10912
H         -9.48368        0.36894        3.12585
H        -10.56430        2.51774        3.69862
H         -9.35299        4.20769        5.07110
H         -7.04134        3.71303        5.87524
H         -5.95439        1.56530        5.27496
H         -8.61950       -1.77354        4.49443
H         -7.46869       -1.36410        5.78593
H         -7.03018       -2.58011        4.55547
C         -7.00998       -0.90005        2.35430
H         -8.05516       -1.07345        2.04511
H         -6.49168       -1.86657        2.24429
O         -4.99867        0.22317        1.80866
N         -4.20889        1.16964        1.01185
C         -4.04168        2.44569        1.79690
C         -3.08404        3.35370        0.99111
C         -1.75834        2.69098        0.64133
C         -2.04379        1.41144       -0.13516
C         -2.95924        0.42550        0.62075
C         -5.39859        3.17214        1.83808
C         -3.54323        2.27624        3.24704
C         -2.19817       -0.23800        1.79142
C         -3.35604       -0.67686       -0.37075
H         -2.93011        4.27629        1.57287
H         -3.59463        3.64331        0.05596
H         -1.17793        2.47236        1.55242
H         -1.13703        3.37471        0.04098
H         -1.11146        0.88130       -0.38657
H         -2.53251        1.67295       -1.08972
H         -6.11021        2.69960        2.52674
H         -5.84157        3.21819        0.83313
H         -5.24450        4.20378        2.19216
H         -2.46264        2.09775        3.31013
H         -4.06272        1.44013        3.73094
H         -3.76028        3.19169        3.81755
H         -1.45258       -0.93815        1.38589
H         -2.89328       -0.80647        2.42282
H         -1.66388        0.48263        2.42300
H         -3.97010       -0.27043       -1.18628
H         -3.92573       -1.47128        0.12593
H         -2.44820       -1.12650       -0.80205

