%NProcShared=4
%Mem=10GB
%Chk=25.chk
#P wB97XD/LANL2DZ opt freq=noraman

previous condition without solvent

0 1 
C         -6.63824        0.61798       -2.36070
C         -6.93754       -0.67602       -2.79269
C         -7.03607       -1.70897       -1.85788
C         -6.83180       -1.44788       -0.50113
C         -6.52814       -0.15557       -0.05310
C         -6.44823        0.87568       -1.00264
C         -6.29978        0.17685        1.40909
C         -6.94299       -0.37444        3.85658
C         -7.81695        0.84618        4.09343
C         -9.12136        0.93011        3.58335
C         -9.93008        2.03672        3.85211
C         -9.44891        3.08564        4.63810
C         -8.15461        3.01738        5.15598
C         -7.35101        1.90635        4.88448
C         -7.39907       -1.53166        4.76490
H         -6.57276        1.43413       -3.08266
H         -7.10108       -0.87793       -3.85230
H         -7.27965       -2.72196       -2.18296
H         -6.90534       -2.26984        0.21269
H         -6.21927        1.88649       -0.66485
H         -6.75849        1.16210        1.58648
H         -5.91393       -0.10318        4.14262
H         -9.51725        0.11903        2.96768
H        -10.94110        2.07835        3.44421
H        -10.07710        3.95383        4.84293
H         -7.76577        3.83299        5.76920
H         -6.33759        1.85918        5.28961
H         -6.73461       -2.40302        4.65598
H         -8.42340       -1.84766        4.51146
H         -7.39628       -1.22100        5.81988
C         -6.90481       -0.83368        2.38555
H         -7.92156       -1.08230        2.04086
H         -6.31511       -1.76390        2.32904
O         -4.89133        0.23635        1.82049
N         -4.08943        1.19169        1.05511
C         -3.85359        2.37266        1.98053
C         -2.89025        3.39867        1.35885
C         -2.41799        1.18149       -0.77295
C         -2.90543        0.42737        0.48324
C         -5.20393        3.10431        2.12988
C         -3.35708        1.99771        3.39892
C         -1.73785        0.19044        1.46142
C         -3.37771       -0.95760       -0.00048
H         -3.23576        3.72549        0.36930
H         -1.85991        3.03447        1.27631
H         -3.26563        1.35046       -1.45395
H         -1.66578        0.56633       -1.29395
H         -5.91852        2.53423        2.73477
H         -5.64869        3.31876        1.14707
H         -5.04057        4.06143        2.64830
H         -2.26398        1.92135        3.46208
H         -3.79580        1.04243        3.71596
H         -3.67879        2.76881        4.11557
H         -0.98132       -0.44993        0.97927
H         -2.08694       -0.31969        2.37142
H         -1.23303        1.12182        1.75237
H         -3.69526       -1.59584        0.83309
H         -2.53478       -1.44789       -0.50879
H         -4.20521       -0.87495       -0.71386
H         -2.86935        4.28167        2.01623
H         -1.95396        2.14833       -0.54845

