%NProcShared=4
%Mem=10GB
%Chk=30b.chk
#P wB97XD/LANL2DZ opt freq=noraman

previous condition without solvent

0 1 
C         -5.86423        1.25781        7.56711
C         -7.04090        1.71627        6.96934
C         -7.40075        1.25332        5.69916
C         -6.59023        0.33212        5.03637
C         -5.40502       -0.12548        5.63038
C         -5.05052        0.34185        6.89777
C         -4.53103       -1.12817        4.91880
C         -4.21714       -3.62113        4.44920
C         -3.19473       -3.78635        5.55490
C         -1.97135       -3.10486        5.49031
C         -1.06436       -3.14976        6.55149
C         -1.36887       -3.88772        7.69940
C         -2.58238       -4.57765        7.77209
C         -3.48727       -4.52467        6.71034
C         -4.97431       -4.90976        4.11061
H         -5.56626        1.62692        8.54964
H         -7.67341        2.44035        7.48739
H         -8.31542        1.61508        5.22444
H         -6.84803       -0.01293        4.03340
H         -4.10793        0.01411        7.34387
H         -3.56906       -1.20420        5.44460
H         -3.68498       -3.28088        3.54669
H         -1.75420       -2.50654        4.60308
H         -0.12099       -2.60419        6.48166
H         -0.66521       -3.92472        8.53282
H         -2.82756       -5.15644        8.66461
H         -4.43593       -5.06012        6.78377
H         -4.27782       -5.73285        3.88795
H         -5.62278       -4.74733        3.23534
H         -5.61951       -5.22520        4.94640
C         -5.20188       -2.49942        4.83335
H         -5.66185       -2.73686        5.80731
H         -6.01659       -2.43678        4.09085
O         -4.27359       -0.71104        3.54696
N         -2.92399       -0.23906        3.38815
C         -2.80413        1.23606        3.69571
C         -1.65728        1.59694        2.77943
C         -1.49155        0.63028        1.78930
C         -2.47526       -0.50153        1.96505
C         -2.41115        1.40566        5.16265
C         -4.04484        2.05599        3.30319
C         -1.74246       -1.84937        1.91020
C         -3.61797       -0.47093        0.94124
H         -1.34566       -2.01469        0.89608
H         -2.41255       -2.68421        2.15015
H         -0.91002       -1.84372        2.62751
C         -1.51107        0.49493        5.73954
C         -1.12364        0.61574        7.07264
C         -1.60883        1.67219        7.85072
C         -2.48860        2.59539        7.28020
C         -2.88902        2.45972        5.94758
C         -4.52168       -1.54340        0.87180
C         -5.58725       -1.52626       -0.02615
C         -5.77192       -0.43583       -0.87952
C         -4.87790        0.63460       -0.82521
C         -3.81054        0.61349        0.07693
H         -3.78960        3.12655        3.31928
H         -4.87734        1.86816        3.99399
H         -4.35505        1.78628        2.28644
H         -1.14557       -0.33082        5.12910
H         -0.44291       -0.12007        7.50650
H         -1.30384        1.77307        8.89431
H         -2.88088        3.42054        7.87823
H         -3.60940        3.16418        5.53283
H         -4.40344       -2.39069        1.54693
H         -6.28264       -2.36772       -0.05366
H         -6.60683       -0.42288       -1.58228
H         -5.01180        1.49340       -1.48570
H         -3.11519        1.45392        0.11009
C         -0.85693        2.73778        2.81156
C          0.11064        2.90600        1.81516
C          0.27813        1.93702        0.81538
C         -0.52094        0.78774        0.79923
H         -0.98306        3.47378        3.60889
H          0.74745        3.79291        1.81985
H          1.03998        2.07818        0.04607
H         -0.39753        0.03301        0.01967

