%NProcShared=4
%Mem=10GB
%Chk=40.chk
#P wB97XD/LANL2DZ opt freq=noraman

previous condition without solvent

0 1 
C         -7.08071        0.36491       -2.03295
C         -6.92549       -0.95213       -2.47337
C         -6.57110       -1.95142       -1.56331
C         -6.35832       -1.63558       -0.21810
C         -6.49760       -0.31849        0.23044
C         -6.87135        0.67012       -0.68880
C         -6.24780        0.10140        1.65786
C         -6.60208       -0.45471        4.15534
C         -7.20132        0.92341        4.33398
C         -8.40062        1.28014        3.70033
C         -8.92915        2.56554        3.83504
C         -8.27333        3.51223        4.62640
C         -7.08910        3.16376        5.27954
C         -6.55650        1.87995        5.12535
C         -7.31564       -1.47980        5.05217
H         -7.37240        1.15065       -2.73209
H         -7.09571       -1.20170       -3.52243
H         -6.46792       -2.98336       -1.90352
H         -6.07136       -2.41998        0.48428
H         -6.99343        1.69399       -0.33291
H         -6.83318        1.01666        1.83159
H         -5.54338       -0.39312        4.45479
H         -8.91130        0.54794        3.06903
H         -9.85065        2.83021        3.31260
H         -8.68118        4.51922        4.72831
H         -6.57165        3.89638        5.90231
H         -5.62008        1.61115        5.62123
H         -6.87294       -2.48263        4.93074
H         -8.38065       -1.53932        4.77273
H         -7.25846       -1.19110        6.11203
C         -6.65500       -0.93878        2.69160
H         -7.68243       -1.25563        2.44559
H         -6.02086       -1.83570        2.59790
O         -4.84706        0.43213        1.93885
N         -4.39777        1.37219        0.95034
C         -4.26470        2.77429        1.41823
C         -3.66832        3.33476        0.11846
C         -2.62933        2.25705       -0.32393
C         -3.13092        0.90415        0.32398
C         -2.12702        0.27042        1.30155
C         -3.45460       -0.12402       -0.76109
H         -2.63623        2.15385       -1.41981
C         -1.27402        2.62679        0.05702
H         -1.23224       -0.05151        0.74832
H         -2.59778       -0.60718        1.76389
H         -1.80638        0.95304        2.09382
H         -3.85880       -1.03306       -0.29520
H         -2.53724       -0.39308       -1.30614
H         -4.21029        0.26092       -1.46060
C         -5.63453        3.37899        1.72414
C         -3.34447        3.01458        2.62542
H         -6.32595        3.24328        0.87940
H         -5.51854        4.45863        1.90708
H         -2.29423        2.78059        2.41419
H         -3.69084        2.40928        3.47701
N         -0.19601        2.95610        0.36415
H         -3.21748        4.32798        0.24766
H         -4.46127        3.38852       -0.64113
H         -6.07309        2.93084        2.62857
H         -3.39153        4.07732        2.90999

